Version 4
SHEET 1 880 680
WIRE 272 -64 -144 -64
WIRE -144 32 -144 -64
WIRE 368 32 320 32
WIRE 0 48 -32 48
WIRE 256 48 224 48
WIRE 272 48 272 -64
WIRE 272 48 256 48
WIRE 320 48 320 32
WIRE 320 48 272 48
WIRE -32 64 -32 48
WIRE 256 80 256 48
WIRE 336 80 256 80
WIRE 0 112 -96 112
WIRE 304 112 224 112
WIRE -144 128 -144 112
WIRE -32 128 -144 128
WIRE -144 144 -144 128
WIRE 0 176 -48 176
WIRE 272 176 224 176
WIRE -144 240 -144 224
WIRE -96 240 -96 112
WIRE -96 240 -144 240
WIRE -80 240 -96 240
WIRE 0 240 -16 240
WIRE 400 240 224 240
WIRE -144 256 -144 240
WIRE -32 304 -32 128
WIRE 304 304 304 112
WIRE 304 304 -32 304
WIRE -144 336 -144 320
WIRE -80 336 -80 240
WIRE 272 336 272 176
WIRE 272 336 -80 336
WIRE -16 352 -16 240
WIRE 336 352 336 80
WIRE 336 352 -16 352
FLAG -144 336 0
FLAG -32 64 0
FLAG 368 112 0
FLAG 400 304 0
SYMBOL Misc\\NE555 112 144 R0
SYMATTR InstName U1
SYMBOL res -160 16 R0
SYMATTR InstName R1
SYMATTR Value 68k
SYMBOL res -160 128 R0
SYMATTR InstName R2
SYMATTR Value 68k
SYMBOL cap -160 256 R0
SYMATTR InstName C1
SYMATTR Value 10µF
SYMBOL cap 384 240 R0
SYMATTR InstName C2
SYMATTR Value 0.01µF
SYMBOL voltage 368 16 R0
WINDOW 123 0 0 Left 0
WINDOW 39 0 0 Left 0
SYMATTR InstName V1
SYMATTR Value 12
TEXT -168 360 Left 2 !.tran 0 10s 0 1ms
