Version 4
SHEET 1 880 680
WIRE 224 -96 -272 -96
WIRE 320 -96 224 -96
WIRE -272 -32 -272 -96
WIRE -64 -16 -112 -16
WIRE 224 -16 224 -96
WIRE 224 -16 160 -16
WIRE -176 48 -272 48
WIRE -64 48 -176 48
WIRE -64 112 -288 112
WIRE 192 112 160 112
WIRE -272 176 -272 128
WIRE -64 176 -96 176
WIRE -96 240 -96 176
WIRE 224 240 224 -16
WIRE 224 240 -96 240
WIRE -176 272 -176 48
WIRE 192 272 192 112
WIRE 192 272 -176 272
FLAG -112 -16 0
FLAG -272 176 0
FLAG 320 -16 0
SYMBOL Misc\\NE555 48 80 R0
SYMATTR InstName U1
SYMBOL res -288 -48 R0
SYMATTR InstName R1
SYMATTR Value 10k
SYMBOL res -288 32 R0
SYMATTR InstName R2
SYMATTR Value 10k
SYMBOL voltage 320 -112 R0
WINDOW 123 0 0 Left 0
WINDOW 39 0 0 Left 0
SYMATTR InstName V1
SYMATTR Value 12
SYMBOL sw -400 32 R0
SYMATTR InstName S1
